%mem=20GB
%chk=acetaminophen_pbc.chk
# rhf/6-31g(d) pop=full

acetaminophen crystal pbc single point calculation

0 1
 N                 -0.83500000    4.21600000    9.88300000
 C                 -0.65700000    3.35000000   11.08200000
 C                  0.17600000    4.83300000    9.16600000
 O                  1.34700000    4.82300000    9.54300000
 C                 -0.23600000    5.78600000    8.02500000
 H                  1.22000000    4.21100000   11.77300000
 H                  0.65600000    6.19500000    7.55200000
 H                 -0.81900000    5.23600000    7.28500000
 H                 -0.83800000    6.59900000    8.43000000
 N                  2.30000000    9.03000000    7.83700000
 C                  2.12300000    8.16300000    6.63800000
 C                  2.07300000    6.50800000    4.38600000
 O                  1.98300000    5.57400000    3.29400000
 C                  0.98400000    7.37400000    4.56100000
 C                  3.18000000    6.54600000    5.21300000
 C                  3.16800000    7.38400000    6.38600000
 C                  1.02300000    8.29800000    5.76600000
 H                  3.24600000    9.18200000    8.15600000
 H                  0.15500000    7.38400000    3.87000000
 H                  4.05100000    5.95100000    4.98100000
 H                  4.01100000    7.37700000    7.06200000
 H                  0.24500000    9.02500000    5.94600000
 H                  1.89500000    6.05500000    2.46800000
 N                  6.55700000    5.41000000    1.93000000
 C                  6.37900000    6.27600000    0.73100000
 C                  5.54600000    4.79400000    2.64700000
 O                  4.37500000    4.80400000    2.27000000
 C                  5.95800000    3.84100000    3.78800000
 H                  4.50200000    5.41500000    0.04000000
 H                  5.06600000    3.43200000    4.26100000
 H                  6.54100000    4.39100000    4.52800000
 H                  6.56000000    3.02800000    3.38300000
 N                  3.42200000    0.59700000    3.97600000
 C                  3.59900000    1.46300000    5.17500000
 C                  3.64900000    3.11900000    7.42700000
 O                  3.74000000    4.05300000    8.52000000
 C                  4.73800000    2.25300000    7.25200000
 C                  2.54200000    3.08000000    6.60000000
 C                  2.55400000    2.24300000    5.42700000
 C                  4.69900000    1.32800000    6.04700000
 H                  2.47600000    0.44500000    3.65700000
 H                  5.56700000    2.24300000    7.94400000
 H                  1.67100000    3.67600000    6.83200000
 H                  1.71100000    2.24900000    4.75100000
 H                  5.47700000    0.60200000    5.86700000
 H                  3.82700000    3.57100000    9.34600000
 C                  0.78800000    1.69400000    1.52000000
 O                  0.87900000    0.76000000    2.61300000
 C                  1.87700000    2.56100000    1.34600000
 C                  1.83800000    3.48500000    0.14100000
 H                  2.70600000    2.57100000    2.03700000
 H                  0.96600000    1.24200000    3.43900000
 C                  6.79900000    1.73300000    0.69300000
 H                  5.92800000    1.13800000    0.92600000
 C                  1.28900000    0.01900000    8.55400000
 O                  0.11800000    0.01000000    8.17700000
 C                  1.70200000    0.97200000    9.69500000
 H                  0.80900000    1.38200000   10.16800000
 H                  2.28500000    0.42300000   10.43400000
 H                  2.30300000    1.78600000    9.29000000
 C                  0.30700000    7.05600000    0.48000000
 H                  0.38500000    5.25800000    2.25000000
 H                  1.15000000    7.06300000    1.15500000
 C                  5.41500000    2.57000000   11.33400000
 H                  5.33700000    4.36800000    9.56400000
 H                  4.57200000    2.56400000   10.65800000
 C                  4.43300000    9.60700000    3.25900000
 O                  5.60400000    9.61700000    3.63600000
 C                  4.02000000    8.65400000    2.11800000
 H                  4.91300000    8.24500000    1.64500000
 H                  3.43800000    9.20400000    1.37900000
 H                  3.41900000    7.84100000    2.52400000
 C                 -1.07700000    7.89400000   11.12000000
 H                 -0.20600000    8.48900000   10.88800000
 C                  4.93400000    7.93200000   10.29300000
 O                  4.84400000    8.86600000    9.20000000
 C                  3.84500000    7.06600000   10.46800000
 C                  3.88500000    6.14200000   11.67300000
 H                  3.01600000    7.05600000    9.77600000
 H                  4.75600000    8.38500000    8.37400000
 Tv                 7.11780000    0.00000000    0.00000000
 Tv                 0.00000000    9.62650000    0.00000000
 Tv                -1.39566850    0.00000000   11.81313978

